$DATA1 SOURCE='HSPICE' VERSION='O-2018.09-2 linux64' PARAM_COUNT=0
.TITLE '*** l network***'
 tr               tf               pavg             temper          
 alter#          
  2.013e-11        2.218e-11       -1.752e-05         25.0000       
1               
